19
Frame 0
 O         -1.366276526316       -0.845035157895       -0.603353631579
 C         -2.564365526316       -0.316752157895       -0.271591631579
 C         -2.831587526316        0.655935842105        0.593836368421
 C          1.506288473684        1.354637842105       -0.401863631579
 C          0.228791473684        0.986870842105       -0.488161631579
 C         -0.201406526316       -0.350838157895        0.054841368421
 C          2.512561473684        0.438355842105        0.143531368421
 C          2.232757473684       -0.858120157895        0.276859368421
 C          0.885861473684       -1.395517157895       -0.125207631579
 H          3.494655473684        0.823608842105        0.390800368421
 H          2.987776473684       -1.557218157895        0.616915368421
 H          0.914639473684       -1.686078157895       -1.184282631579
 H          0.627051473684       -2.291263157895        0.440561368421
 H         -3.349845526316       -0.813075157895       -0.829377631579
 H         -2.077393526316        1.187597842105        1.155828368421
 H         -3.862700526316        0.941059842105        0.745790368421
 H         -0.427816526316       -0.248525157895        1.125813368421
 H          1.822383473684        2.332909842105       -0.745302631579
 H         -0.531374526316        1.641445842105       -0.895636631579
19
Frame 1
 O         -1.392714791595       -0.737641395907       -0.793658294441
 C         -2.574100619520       -0.470293002753       -0.147290024485
 C         -2.805703869371        0.686613132836        0.471305926981
 C          1.526782001211        1.398896265620       -0.293668924267
 C          0.250332308629        1.055157766819       -0.448342086321
 C         -0.241238836292       -0.293772726010        0.005853762985
 C          2.490710485398        0.431585978758        0.245388679694
 C          2.236203413528       -0.878999689081        0.126122745981
 C          0.841542534054       -1.350027044999       -0.123502884119
 H          3.504411309194        0.771488873627        0.427238556621
 H          3.000034772410       -1.613169064883        0.355583690304
 H          0.803808741842       -1.781297051589       -1.132986892400
 H          0.664422000105       -2.137678836045        0.670401949902
 H         -3.368245230645       -1.051793741282       -0.602086583626
 H         -1.938754184213        1.183605741954        0.971056315221
 H         -3.836718076549        0.947991225845        0.675435195112
 H         -0.563561853233       -0.265822928521        1.085762144348
 H          1.874313711973        2.381975784698       -0.590615414424
 H         -0.471523816929        1.723180710913       -0.901997863067
19
Frame 2
 O         -1.440081694395       -0.609901583365       -0.907722221223
 C         -2.529737233631       -0.580950783164       -0.023836157005
 C         -2.817851251172        0.671155020371        0.354514314306
 C          1.555187964979        1.425411498896       -0.176200294776
 C          0.275439845604        1.124300429244       -0.378397196460
 C         -0.274928172166       -0.228596099042       -0.010914984534
 C          2.482882343810        0.384742857003        0.294055424156
 C          2.217699989525       -0.893240247382       -0.051573022705
 C          0.792360119461       -1.304406549503       -0.117504924739
 H          3.518956451844        0.681183846404        0.425895342413
 H          2.971415448575       -1.660527604833        0.085950498449
 H          0.663242124020       -1.861890499490       -1.054660645607
 H          0.744948197358       -1.931249418647        0.877274191598
 H         -3.286070181219       -1.265491381883       -0.392252939827
 H         -1.881782564985        1.195254244900        0.787159159954
 H         -3.864434775941        0.902563978289        0.517859377906
 H         -0.665763625419       -0.265786391325        1.077466450254
 H          1.943620358538        2.400562917055       -0.447784425315
 H         -0.405103344786        1.816865766474       -0.859327946845
19
Frame 3
 O         -1.497275815502       -0.505931000071       -0.983734770421
 C         -2.471839188547       -0.644277049914        0.064615568986
 C         -2.835974247707        0.639513522032        0.255050810105
 C          1.580797806236        1.432914382567       -0.064066149481
 C          0.296834984186        1.179809641121       -0.301664553101
 C         -0.306963571822       -0.170578295629       -0.014681903574
 C          2.479283177395        0.324964283916        0.311686736300
 C          2.175495652682       -0.895370352619       -0.210006121009
 C          0.747784735655       -1.263914012974       -0.101470539205
 H          3.532081572792        0.584192420429        0.383895957527
 H          2.907109386510       -1.693591655950       -0.143691513525
 H          0.533640443616       -1.927017671709       -0.949582333057
 H          0.860057379717       -1.693296805517        1.039824997974
 H         -3.175166651340       -1.411102179062       -0.242854798987
 H         -1.843867990595        1.195516859559        0.634508759641
 H         -3.901216628477        0.819383672392        0.366145155304
 H         -0.749269640565       -0.260718943818        1.084860615484
 H          2.004293521876        2.400866134011       -0.306098561657
 H         -0.335804926111        1.888637051235       -0.822737357306
19
Frame 4
 O         -1.556913933355       -0.413923588965       -1.046237865434
 C         -2.413794141053       -0.680966777693        0.124175770822
 C         -2.853191260405        0.601420237761        0.177789063301
 C          1.605695571291        1.428150396855        0.024385448450
 C          0.313482360644        1.225121272031       -0.217800103803
 C         -0.336652605458       -0.119811842973       -0.011141144681
 C          2.474930192344        0.268052578910        0.317567309752
 C          2.120092811010       -0.891922853899       -0.326320882231
 C          0.707564026567       -1.228860840771       -0.081156594479
 H          3.537994541854        0.496629329488        0.335020358446
 H          2.825820970114       -1.716322357120       -0.312677850623
 H          0.431412693997       -1.966518554468       -0.844964117615
 H          0.977994033977       -1.464429855813        1.143422182657
 H         -3.058017049301       -1.510961394986       -0.146978736538
 H         -1.809468175440        1.185853265872        0.519136099342
 H         -3.932856465463        0.719601491305        0.237206804929
 H         -0.822170584066       -0.259619326307        1.101461563285
 H          2.062959667085        2.379435535391       -0.223031113012
 H         -0.274882654344        1.949073285380       -0.769856192567
19
Frame 5
 O         -1.620764277269       -0.333202337014       -1.099795157262
 C         -2.358584579786       -0.702246523229        0.169323546337
 C         -2.865558422542        0.564488752481        0.119688482506
 C          1.628154721653        1.419328769214        0.086596904897
 C          0.326522717518        1.260081240650       -0.138947973621
 C         -0.362979243313       -0.076276731886       -0.005551590410
 C          2.469435076697        0.221172410240        0.319299789708
 C          2.064423608534       -0.888257836651       -0.403897760380
 C          0.672147924464       -1.198678363816       -0.064306541362
 H          3.537898026901        0.425607837372        0.289413806107
 H          2.744658849411       -1.734403426468       -0.422689323410
 H          0.354377065051       -1.985023242035       -0.759538859893
 H          1.080470259489       -1.276785656855        1.200423035883
 H         -2.946741182320       -1.579091243439       -0.082499703556
 H         -1.770230072010        1.173572855960        0.433916452458
 H         -3.953593146555        0.620154261110        0.126231344118
 H         -0.884261283619       -0.261546000830        1.123300307406
 H          2.110828904329        2.352418070538       -0.181797603201
 H         -0.226204946632        1.998687164657       -0.709169156324
19
Frame 6
 O         -1.691070939154       -0.261984258430       -1.149714702319
 C         -2.305803688550       -0.713189010795        0.204724341870
 C         -2.875419135250        0.530123330161        0.072937520640
 C          1.647929634755        1.409750854920        0.127331835507
 C          0.337977900338        1.286569176535       -0.072279779972
 C         -0.386017971202       -0.038444934977       -0.003477458864
 C          2.462615013889        0.183015354573        0.322007417392
 C          2.014484052039       -0.887068676002       -0.454544885018
 C          0.640581997082       -1.172568582394       -0.054601720087
 H          3.533573145297        0.367971037568        0.253606202124
 H          2.671753757808       -1.751325322796       -0.489635260855
 H          0.295131166312       -1.992567012043       -0.694708853842
 H          1.167177124349       -1.129815427451        1.231970657110
 H         -2.841724872195       -1.626556976782       -0.035793721534
 H         -1.726577141027        1.164235604317        0.361159590259
 H         -3.966162864294        0.524342117404        0.042511707567
 H         -0.937517602289       -0.262196174499        1.145871824965
 H          2.148688363952        2.326606038143       -0.163506568221
 H         -0.189617941860        2.043102862547       -0.643858146721
19
Frame 7
 O         -1.769317101047       -0.200255962728       -1.198692318482
 C         -2.255022379884       -0.716157002617        0.232669776612
 C         -2.885662311689        0.497423022589        0.031591024673
 C          1.665307853029        1.400328592851        0.155321687437
 C          0.348911073396        1.306795652833       -0.016472134549
 C         -0.406266844316       -0.004692494368       -0.007275476400
 C          2.455256037650        0.150953072865        0.327490985117
 C          1.971497193795       -0.888387587046       -0.487940391385
 C          0.611901309518       -1.149422398277       -0.052960245644
 H          3.527208871780        0.319584037905        0.228460031420
 H          2.608632495657       -1.767856874030       -0.530154892317
 H          0.247977777789       -1.995806944145       -0.645717470660
 H          1.243009839950       -1.014089364328        1.251322810004
 H         -2.740761979866       -1.660180952075        0.001448862379
 H         -1.680665108294        1.159764451392        0.287177769175
 H         -3.975734305432        0.432755275377       -0.011908783781
 H         -0.984581650787       -0.258958512068        1.167344984808
 H          2.179460708251        2.302862368982       -0.156502822090
 H         -0.161151479499        2.085341616888       -0.575203396317
19
Frame 8
 O         -1.858296263490       -0.148774587619       -1.247222524001
 C         -2.205460529643       -0.712408206577        0.255751914209
 C         -2.897963276168        0.464946954527       -0.005181653874
 C          1.680521106632        1.391153576756        0.177327423712
 C          0.359591936847        1.322435628589        0.030687839184
 C         -0.424140805855        0.026408596573       -0.018831772674
 C          2.447578639904        0.123064131307        0.337198260253
 C          1.935615778294       -0.891338539385       -0.509802603307
 C          0.585380605456       -1.128161354741       -0.060925675787
 H          3.519946023658        0.277760440468        0.215225726870
 H          2.554883133355       -1.783872861334       -0.553645500875
 H          0.209670291660       -1.996399276719       -0.612073833718
 H          1.311310162051       -0.923118869779        1.265034578852
 H         -2.642483381451       -1.683272191616        0.035539515652
 H         -1.633565293685        1.160203534892        0.202068104749
 H         -3.985338794307        0.344849101332       -0.038131864643
 H         -1.026301392094       -0.249938952111        1.186830649429
 H          2.205373214153        2.280614240966       -0.153858111742
 H         -0.136321155316        2.125848634472       -0.505990472290
19
Frame 9
 O         -1.960335476813       -0.111749201075       -1.295185183150
 C         -2.156619533709       -0.701495072947        0.276412093590
 C         -2.912579685841        0.432222611058       -0.038983873499
 C          1.693338444770        1.381819093406        0.198911533909
 C          0.369547126685        1.334124818824        0.071966575619
 C         -0.439814337187        0.055435798564       -0.039493152442
 C          2.439972842319        0.098016268609        0.350503595432
 C          1.906241577381       -0.895142795792       -0.524478538251
 C          0.560756957831       -1.108295163123       -0.079369326718
 H          3.512571808167        0.241185064976        0.211841527304
 H          2.509398086712       -1.799022669134       -0.567883982183
 H          0.178026893696       -1.995914487475       -0.592085992028
 H          1.375641078241       -0.852209819361        1.276766505157
 H         -2.546964013112       -1.696616736422        0.073845965370
 H         -1.585271692784        1.164230395255        0.094801258738
 H         -3.995291386431        0.261645565216       -0.040024405506
 H         -1.062811013477       -0.233587266738        1.204141456689
 H          2.227267169522        2.260407507856       -0.146658331141
 H         -0.113074845970        2.164946088303       -0.435027726891
19
Frame 10
 O         -2.077317099085       -0.093789907976       -1.342141955604
 C         -2.108239440596       -0.682074233533        0.295698388475
 C         -2.927924820023        0.400553976897       -0.070837834461
 C          1.702510245860        1.371804675543        0.222939123122
 C          0.377095892715        1.341363031358        0.109964738096
 C         -0.452999158847        0.081518724285       -0.070197810872
 C          2.432512295938        0.075328744552        0.366150292199
 C          1.882953813306       -0.899579431961       -0.534626486188
 C          0.538455672714       -1.090443833091       -0.108556950614
 H          3.505208411689        0.210184664404        0.215496605604
 H          2.471847324541       -1.813094906704       -0.577359986968
 H          0.152003492812       -1.995654176376       -0.584833041930
 H          1.439682610109       -0.798117394637        1.288944694512
 H         -2.456043686889       -1.699059281943        0.122030044949
 H         -1.533641999905        1.167512968541       -0.046240774169
 H         -4.003563282812        0.188035666651       -0.020019156354
 H         -1.093708285831       -0.210269206262        1.219269771010
 H          2.244150922109        2.243826437081       -0.127364181125
 H         -0.092982907806        2.201953483171       -0.358315479683
19
Frame 11
 O         -2.209152713549       -0.092717603787       -1.386806494893
 C         -2.061105744738       -0.653712148398        0.310872881330
 C         -2.940383634243        0.374681000191       -0.100758489971
 C          1.705405830793        1.361080821125        0.248570283437
 C          0.378997696325        1.342179470777        0.147506163325
 C         -0.462684127711        0.101171348392       -0.108911295168
 C          2.425668007956        0.056323104831        0.381561925418
 C          1.865629046593       -0.905578970800       -0.540651408749
 C          0.520044562916       -1.077250688090       -0.145392592671
 H          3.497862476817        0.187941290309        0.220480556729
 H          2.443419779363       -1.826323955491       -0.582824556286
 H          0.131846668186       -1.998602703317       -0.586170611454
 H          1.509756149252       -0.756473704460        1.304583690117
 H         -2.373994510071       -1.688734609995        0.176823818065
 H         -1.472866755161        1.160438169641       -0.226921882754
 H         -4.006472924266        0.135980951981        0.019823829026
 H         -1.120519170700       -0.186282781757        1.232963380682
 H          2.251728656289        2.232934928149       -0.094853092384
 H         -0.083179294051        2.232946080699       -0.269896103798
19
Frame 12
 O         -2.354776699123       -0.089900339659       -1.425888566111
 C         -2.017509237168       -0.620336163910        0.315378869026
 C         -2.945894380364        0.362709747120       -0.125045928742
 C          1.698779922782        1.350683939633        0.271491608750
 C          0.371502561062        1.333638352734        0.185426130174
 C         -0.467577607425        0.108372247040       -0.150030479464
 C          2.420899028880        0.044559032137        0.393489226601
 C          1.854715194306       -0.915445714174       -0.539743025261
 C          0.507977918277       -1.073355653978       -0.182563070253
 H          3.490899964982        0.180786556463        0.218364343028
 H          2.427038039639       -1.839713517813       -0.580017868045
 H          0.119407966036       -2.009896403196       -0.587555963834
 H          1.595334311042       -0.719288591929        1.327682135775
 H         -2.307719214346       -1.667003938074        0.219935285586
 H         -1.393816422372        1.128938516045       -0.439083538804
 H         -4.000474192534        0.122236483575        0.078358333218
 H         -1.148563605091       -0.175897052255        1.246358806480
 H          2.243399255351        2.230200278753       -0.054576462445
 H         -0.093622803934        2.248712221485       -0.171979835680
19
Frame 13
 O         -2.515589599218       -0.050117662940       -1.451768881096
 C         -1.978407209941       -0.590142368210        0.303641232027
 C         -2.943294652322        0.370953458944       -0.132998964958
 C          1.680396652758        1.341984502693        0.287115259124
 C          0.352670054070        1.314718443789        0.216191110799
 C         -0.467256829529        0.098508090524       -0.192029172697
 C          2.418402731732        0.043271919526        0.402376137777
 C          1.851792782219       -0.932147373466       -0.526179714919
 C          0.503893934216       -1.082369829154       -0.216173919702
 H          3.483863443234        0.192821556095        0.208052230173
 H          2.425654543756       -1.855681521915       -0.558670288700
 H          0.117146015694       -2.033246064222       -0.585797734585
 H          1.700635392624       -0.675499982424        1.361506479736
 H         -2.260848744738       -1.641066317676        0.224480663442
 H         -1.291947071864        1.060298889736       -0.663225264510
 H         -3.982332534717        0.152745252348        0.162595542251
 H         -1.182307772601       -0.192941034894        1.257207837697
 H          2.216285628436        2.236529845414       -0.011160786276
 H         -0.128756763810        2.241380195832       -0.085161765582
19
Frame 14
 O         -2.679695512855        0.061034599753       -1.454014389940
 C         -1.944522280210       -0.568869422763        0.277229206371
 C         -2.935456321193        0.396675834863       -0.117705090169
 C          1.650564939037        1.334913558305        0.294769125205
 C          0.323318208102        1.287563359649        0.231685213586
 C         -0.463255706058        0.071453956896       -0.233556572631
 C          2.417787333249        0.052704576569        0.407961761928
 C          1.855011413809       -0.957777390554       -0.495380192857
 C          0.506219905448       -1.104851673652       -0.243684889771
 H          3.475105665456        0.222903636990        0.185139494337
 H          2.436328608207       -1.876809948508       -0.513202381192
 H          0.123071958382       -2.068255272565       -0.580957181108
 H          1.829452676482       -0.614643421954        1.406354580030
 H         -2.232699735396       -1.617090511768        0.175560331986
 H         -1.173444762378        0.948608679597       -0.877796609333
 H         -3.951921752390        0.210600352064        0.269484875306
 H         -1.226829803195       -0.241292448943        1.264009631516
 H          2.172247133660        2.250927367012        0.039747456999
 H         -0.181281968157        2.212204169007       -0.035644370266
19
Frame 15
 O         -2.823275980954        0.265244801963       -1.415967846366
 C         -1.913231438161       -0.556000077014        0.243593475580
 C         -2.925393441481        0.429823108646       -0.073863060971
 C          1.610578141729        1.328326762798        0.293045924843
 C          0.285604056041        1.256477467160        0.216881293439
 C         -0.458256984488        0.030496363958       -0.282474185385
 C          2.414784940142        0.069839817126        0.413504519486
 C          1.861821051533       -0.993183170493       -0.443591377748
 C          0.511789320332       -1.138249511274       -0.274219847219
 H          3.460736398425        0.263036975650        0.155766981153
 H          2.453510002707       -1.905331521959       -0.437231367155
 H          0.133751308196       -2.111339261087       -0.586149814814
 H          1.974136845010       -0.527833823823        1.458493455391
 H         -2.218253953858       -1.592635210854        0.081230842715
 H         -1.053885732232        0.793119462463       -1.076450509904
 H         -3.912413665408        0.264648950319        0.394259651053
 H         -1.276252813780       -0.317510127411        1.263472159482
 H          2.116517671028        2.269576239510        0.107381061034
 H         -0.242265724780        2.171492754322       -0.037681354614
19
Frame 16
 O         -2.908196957419        0.545872188832       -1.327846970853
 C         -1.880195305637       -0.543110548710        0.216415988956
 C         -2.917004846737        0.455521019565       -0.017769717598
 C          1.564357963879        1.319840227404        0.288592505411
 C          0.245059046582        1.226384780511        0.166684759162
 C         -0.454758573791       -0.015720153736       -0.343998296788
 C          2.407503811634        0.088625472836        0.416700548647
 C          1.863153370374       -1.036763913728       -0.372074228806
 C          0.515153730121       -1.177015790908       -0.313859663107
 H          3.437198334881        0.302304530897        0.111451700118
 H          2.463339196446       -1.942104199089       -0.335938741872
 H          0.141054911274       -2.155500481395       -0.610896230818
 H          2.140988644750       -0.416196480627        1.506842193913
 H         -2.205932887658       -1.560436180919       -0.018798473328
 H         -0.953353705656        0.605798363703       -1.252059462765
 H         -3.879102845111        0.280247869512        0.498730314818
 H         -1.326106356939       -0.394627999209        1.259921610279
 H          2.051211470041        2.285483287726        0.203552775075
 H         -0.304369001033        2.131398007333       -0.075650610442
19
Frame 17
 O         -2.928866790664        0.841878943956       -1.193466417080
 C         -1.836575306434       -0.522909254498        0.209881775196
 C         -2.908938570587        0.465588307043        0.022947123507
 C          1.516126751486        1.308356217911        0.290665300471
 C          0.209800151342        1.203098567470        0.082532092710
 C         -0.453951988020       -0.057130377591       -0.418364008764
 C          2.393300966903        0.102356310176        0.424352657542
 C          1.850740792317       -1.082617409999       -0.283751710106
 C          0.515356292828       -1.211991916542       -0.378624994630
 H          3.401473827066        0.328551912064        0.059584261214
 H          2.455298771850       -1.983053298534       -0.222376984261
 H          0.144251104737       -2.187673217187       -0.686020545916
 H          2.315015714129       -0.287867888237        1.538261079430
 H         -2.179515116725       -1.526335694500       -0.063607361380
 H         -0.884298683942        0.405448958064       -1.401081783359
 H         -3.858735522958        0.258155498389        0.552350550374
 H         -1.369844642559       -0.444463642112        1.266164049277
 H          1.979242192068        2.288770297771        0.331980937239
 H         -0.359879942839        2.101837686355       -0.131426021464
19
Frame 18
 O         -2.922698369050        1.106858238866       -1.036137148274
 C         -1.777833814453       -0.494781164443        0.210835110720
 C         -2.897173524920        0.460783952702        0.017632477594
 C          1.463381894589        1.292025374541        0.310770512766
 C          0.184352314659        1.184889349795       -0.022341433906
 C         -0.452000569179       -0.091664044313       -0.506210835903
 C          2.373844803152        0.109899649826        0.436509959020
 C          1.818325185292       -1.126229542945       -0.181544278447
 C          0.518015687213       -1.241247887776       -0.458992917546
 H          3.349201369007        0.342191522310       -0.007414175149
 H          2.427302216747       -2.022359546741       -0.109878838867
 H          0.150720299645       -2.211253964483       -0.785795706835
 H          2.497798482154       -0.152766567330        1.537500375928
 H         -2.127630850182       -1.500776672609       -0.050420155851
 H         -0.832716069580        0.205902808640       -1.529359250741
 H         -3.829079783498        0.243186006886        0.576168020820
 H         -1.418902527189       -0.457957717589        1.277399535025
 H          1.886763292290        2.274695451898        0.493295536952
 H         -0.411670036699        2.078604752764       -0.172016787306
19
Frame 19
 O         -2.917051889370        1.327040230428       -0.850635797315
 C         -1.704889619903       -0.455636412599        0.211512747060
 C         -2.878512280797        0.450780403823       -0.028470270629
 C          1.402283306260        1.271268343743        0.340594152540
 C          0.170379078794        1.171751567345       -0.140196770217
 C         -0.445656279957       -0.122063797155       -0.600214108822
 C          2.343952404273        0.111906305423        0.465543442466
 C          1.760263107405       -1.166598686524       -0.054312971919
 C          0.528462036049       -1.265463690907       -0.534460046498
 H          3.276798627101        0.335000514165       -0.067368386959
 H          2.399189103372       -2.044039677011       -0.036327607188
 H          0.173250896030       -2.224240973889       -0.902484176833
 H          2.644197961668       -0.015510996301        1.513612302081
 H         -2.053845894794       -1.472845999161       -0.011876872233
 H         -0.770679306873        0.006771975597       -1.640050320741
 H         -3.761269821210        0.251847235022        0.614132834398
 H         -1.486949834210       -0.455920653151        1.285876435751
 H          1.773692926526        2.241315096961        0.656235318230
 H         -0.453614520365        2.054639214191       -0.221109903171
